*SPEF "ieee 1481-1999"
*DESIGN "CPU_core"
*DATE "06:16:56 Saturday August 02, 2025"
*VENDOR "The OpenROAD Project"
*PROGRAM "OpenROAD"
*VERSION "b16bda7e82721d10566ff7e2b68f1ff0be9f9e38"
*DESIGN_FLOW "NAME_SCOPE LOCAL" "PIN_CAP NONE"
*DIVIDER /
*DELIMITER :
*BUS_DELIMITER []
*T_UNIT 1 NS
*C_UNIT 1 PF
*R_UNIT 1 OHM
*L_UNIT 1 HENRY

*NAME_MAP
*3 clk
*4 debug_reg1[0]
*5 debug_reg1[10]
*6 debug_reg1[11]
*7 debug_reg1[12]
*8 debug_reg1[13]
*9 debug_reg1[14]
*10 debug_reg1[15]
*11 debug_reg1[16]
*12 debug_reg1[17]
*13 debug_reg1[18]
*14 debug_reg1[19]
*15 debug_reg1[1]
*16 debug_reg1[20]
*17 debug_reg1[21]
*18 debug_reg1[22]
*19 debug_reg1[23]
*20 debug_reg1[24]
*21 debug_reg1[25]
*22 debug_reg1[26]
*23 debug_reg1[27]
*24 debug_reg1[28]
*25 debug_reg1[29]
*26 debug_reg1[2]
*27 debug_reg1[30]
*28 debug_reg1[31]
*29 debug_reg1[3]
*30 debug_reg1[4]
*31 debug_reg1[5]
*32 debug_reg1[6]
*33 debug_reg1[7]
*34 debug_reg1[8]
*35 debug_reg1[9]
*36 debug_reg2[0]
*37 debug_reg2[10]
*38 debug_reg2[11]
*39 debug_reg2[12]
*40 debug_reg2[13]
*41 debug_reg2[14]
*42 debug_reg2[15]
*43 debug_reg2[16]
*44 debug_reg2[17]
*45 debug_reg2[18]
*46 debug_reg2[19]
*47 debug_reg2[1]
*48 debug_reg2[20]
*49 debug_reg2[21]
*50 debug_reg2[22]
*51 debug_reg2[23]
*52 debug_reg2[24]
*53 debug_reg2[25]
*54 debug_reg2[26]
*55 debug_reg2[27]
*56 debug_reg2[28]
*57 debug_reg2[29]
*58 debug_reg2[2]
*59 debug_reg2[30]
*60 debug_reg2[31]
*61 debug_reg2[3]
*62 debug_reg2[4]
*63 debug_reg2[5]
*64 debug_reg2[6]
*65 debug_reg2[7]
*66 debug_reg2[8]
*67 debug_reg2[9]
*68 debug_reg3[0]
*69 debug_reg3[10]
*70 debug_reg3[11]
*71 debug_reg3[12]
*72 debug_reg3[13]
*73 debug_reg3[14]
*74 debug_reg3[15]
*75 debug_reg3[16]
*76 debug_reg3[17]
*77 debug_reg3[18]
*78 debug_reg3[19]
*79 debug_reg3[1]
*80 debug_reg3[20]
*81 debug_reg3[21]
*82 debug_reg3[22]
*83 debug_reg3[23]
*84 debug_reg3[24]
*85 debug_reg3[25]
*86 debug_reg3[26]
*87 debug_reg3[27]
*88 debug_reg3[28]
*89 debug_reg3[29]
*90 debug_reg3[2]
*91 debug_reg3[30]
*92 debug_reg3[31]
*93 debug_reg3[3]
*94 debug_reg3[4]
*95 debug_reg3[5]
*96 debug_reg3[6]
*97 debug_reg3[7]
*98 debug_reg3[8]
*99 debug_reg3[9]
*100 net166
*101 net147
*102 net148
*103 net149
*104 net150
*105 net151
*106 instruction_debug[15]
*107 net152
*108 net153
*109 net154
*110 net155
*111 net167
*112 instruction_debug[20]
*113 instruction_debug[21]
*114 instruction_debug[22]
*115 instruction_debug[23]
*116 net156
*117 net157
*118 net158
*119 net159
*120 net160
*121 net161
*122 net143
*123 net162
*124 net163
*125 net144
*126 net168
*127 instruction_debug[5]
*128 net145
*129 instruction_debug[7]
*130 instruction_debug[8]
*131 net146
*132 net164
*133 pc_current[10]
*134 pc_current[11]
*135 pc_current[12]
*136 pc_current[13]
*137 pc_current[14]
*138 pc_current[15]
*139 pc_current[16]
*140 pc_current[17]
*141 pc_current[18]
*142 pc_current[19]
*143 net165
*144 pc_current[20]
*145 pc_current[21]
*146 pc_current[22]
*147 pc_current[23]
*148 pc_current[24]
*149 pc_current[25]
*150 pc_current[26]
*151 pc_current[27]
*152 pc_current[28]
*153 pc_current[29]
*154 pc_current[2]
*155 pc_current[30]
*156 pc_current[31]
*157 pc_current[3]
*158 pc_current[4]
*159 pc_current[5]
*160 pc_current[6]
*161 pc_current[7]
*162 pc_current[8]
*163 pc_current[9]
*164 pipeline_state[0]
*165 pipeline_state[1]
*166 pipeline_state[2]
*167 pipeline_state[3]
*168 reset
*169 _0000_
*170 _0001_
*171 _0002_
*172 _0003_
*173 _0004_
*174 _0005_
*175 _0006_
*176 _0007_
*177 _0008_
*178 _0009_
*179 _0010_
*180 _0011_
*181 _0012_
*182 _0013_
*183 _0014_
*184 _0015_
*185 _0016_
*186 _0017_
*187 _0018_
*188 _0019_
*189 _0020_
*190 _0021_
*191 _0022_
*192 _0023_
*193 _0024_
*194 _0025_
*195 _0026_
*196 _0027_
*197 _0028_
*198 _0029_
*199 _0030_
*200 _0031_
*201 _0032_
*202 _0033_
*203 _0034_
*204 _0035_
*205 _0036_
*206 _0037_
*207 _0038_
*208 _0039_
*209 _0040_
*210 _0041_
*211 _0042_
*212 _0043_
*213 _0044_
*214 _0045_
*215 _0046_
*216 _0047_
*217 _0048_
*218 _0049_
*219 _0050_
*220 _0051_
*221 _0052_
*222 _0053_
*223 _0054_
*224 _0055_
*225 _0056_
*226 _0057_
*227 _0058_
*228 _0059_
*229 _0060_
*230 _0061_
*231 _0062_
*232 _0063_
*233 _0064_
*234 _0065_
*235 _0066_
*236 _0067_
*237 _0068_
*238 _0069_
*239 _0070_
*240 _0071_
*241 _0072_
*242 _0073_
*243 _0074_
*244 _0075_
*245 _0076_
*246 _0077_
*247 _0078_
*248 _0079_
*249 _0080_
*250 _0081_
*251 _0082_
*252 _0083_
*253 _0084_
*254 _0085_
*255 _0086_
*256 _0087_
*257 _0088_
*258 _0089_
*259 _0090_
*260 _0091_
*261 _0092_
*262 _0093_
*263 _0094_
*264 _0095_
*265 _0096_
*266 _0097_
*267 _0098_
*268 _0099_
*269 _0100_
*270 _0101_
*271 _0102_
*272 _0103_
*273 _0104_
*274 _0105_
*275 _0106_
*276 _0107_
*277 _0108_
*278 _0109_
*279 _0110_
*280 _0111_
*281 _0112_
*282 _0113_
*283 _0114_
*284 _0115_
*285 _0116_
*286 _0117_
*287 _0118_
*288 _0119_
*289 _0120_
*290 _0121_
*291 _0122_
*292 _0123_
*293 _0124_
*294 _0125_
*295 _0126_
*296 _0127_
*297 _0128_
*298 _0129_
*299 _0130_
*300 _0131_
*301 _0132_
*302 _0133_
*303 _0134_
*304 _0135_
*305 _0136_
*306 _0137_
*307 _0138_
*308 _0139_
*309 _0140_
*310 _0141_
*311 _0142_
*312 _0143_
*313 _0144_
*314 _0145_
*315 _0146_
*316 _0147_
*317 _0148_
*318 _0149_
*319 _0150_
*320 _0151_
*321 _0152_
*322 _0153_
*323 _0154_
*324 _0155_
*325 _0156_
*326 _0157_
*327 _0158_
*328 _0159_
*329 _0160_
*330 _0161_
*331 _0162_
*332 _0163_
*333 _0164_
*334 _0165_
*335 _0166_
*336 _0167_
*337 _0168_
*338 _0169_
*339 _0170_
*340 _0171_
*341 _0172_
*342 _0173_
*343 _0174_
*344 _0175_
*345 _0176_
*346 _0177_
*347 _0178_
*348 _0179_
*349 _0180_
*350 _0181_
*351 _0182_
*352 _0183_
*353 _0184_
*354 _0185_
*355 _0186_
*356 _0187_
*357 _0188_
*358 _0189_
*359 _0190_
*360 _0191_
*361 _0192_
*362 _0193_
*363 _0194_
*364 _0195_
*365 _0196_
*366 _0197_
*367 _0198_
*368 _0199_
*369 _0200_
*370 _0201_
*371 _0202_
*372 _0203_
*373 _0204_
*374 _0205_
*375 _0206_
*376 _0207_
*377 _0208_
*378 _0209_
*379 _0210_
*380 _0211_
*381 _0212_
*382 _0213_
*383 _0214_
*384 _0215_
*385 _0216_
*386 _0217_
*387 _0218_
*388 _0219_
*389 _0220_
*390 _0221_
*391 _0222_
*392 _0223_
*393 _0224_
*394 _0225_
*395 _0226_
*396 _0227_
*397 _0228_
*398 _0229_
*399 _0230_
*400 _0231_
*401 _0232_
*402 _0233_
*403 _0234_
*404 _0235_
*405 _0236_
*406 _0237_
*407 _0238_
*408 _0239_
*409 _0240_
*410 _0241_
*411 _0242_
*412 _0243_
*413 _0244_
*414 _0245_
*415 _0246_
*416 _0247_
*417 _0248_
*418 _0249_
*419 _0250_
*420 _0251_
*421 _0252_
*422 _0253_
*423 _0254_
*424 _0255_
*425 _0256_
*426 _0257_
*427 _0258_
*428 _0259_
*429 _0260_
*430 _0261_
*431 _0262_
*432 _0263_
*433 _0264_
*434 _0265_
*435 _0266_
*436 _0267_
*437 _0268_
*438 _0269_
*439 _0270_
*440 _0271_
*441 _0272_
*442 _0273_
*443 _0274_
*444 _0275_
*445 _0276_
*446 _0277_
*447 _0278_
*448 _0279_
*449 _0280_
*450 _0281_
*451 _0282_
*452 _0283_
*453 _0284_
*454 _0285_
*455 _0286_
*456 _0287_
*457 _0288_
*458 _0289_
*459 _0290_
*460 _0291_
*461 _0292_
*462 _0293_
*463 _0294_
*464 _0295_
*465 _0296_
*466 _0297_
*467 _0298_
*468 _0299_
*469 _0300_
*470 _0301_
*471 _0302_
*472 _0303_
*473 _0304_
*474 _0305_
*475 _0306_
*476 _0307_
*477 _0308_
*478 _0309_
*479 _0310_
*480 _0311_
*481 _0312_
*482 _0313_
*483 _0314_
*484 _0315_
*485 _0316_
*486 _0317_
*487 _0318_
*488 _0319_
*489 _0320_
*490 _0321_
*491 _0322_
*492 _0323_
*493 _0324_
*494 _0325_
*495 _0326_
*496 _0327_
*497 _0328_
*498 _0329_
*499 _0330_
*500 _0331_
*501 _0332_
*502 _0333_
*503 _0334_
*504 _0335_
*505 _0336_
*506 _0337_
*507 _0338_
*508 _0339_
*509 _0340_
*510 _0341_
*511 _0342_
*512 _0343_
*513 _0344_
*514 _0345_
*515 _0346_
*516 _0347_
*517 _0348_
*518 _0349_
*519 _0350_
*520 _0351_
*521 _0352_
*522 _0353_
*523 _0354_
*524 _0355_
*525 _0356_
*526 _0357_
*527 _0358_
*528 _0359_
*529 _0360_
*530 _0361_
*531 _0362_
*532 _0363_
*533 _0364_
*534 _0365_
*535 _0366_
*536 _0367_
*537 _0368_
*538 _0369_
*539 _0370_
*540 _0371_
*541 _0372_
*542 _0373_
*543 _0374_
*544 _0375_
*545 _0376_
*546 _0377_
*547 _0378_
*548 _0379_
*549 _0380_
*550 _0381_
*551 _0382_
*552 _0383_
*553 _0384_
*554 _0385_
*555 _0386_
*556 _0387_
*557 _0388_
*558 _0389_
*559 _0390_
*560 _0391_
*561 _0392_
*562 _0393_
*563 _0394_
*564 _0395_
*565 _0396_
*566 _0397_
*567 _0398_
*568 _0399_
*569 _0400_
*570 _0401_
*571 _0402_
*572 _0403_
*573 _0404_
*574 _0405_
*575 _0406_
*576 _0407_
*577 _0408_
*578 _0409_
*579 _0410_
*580 _0411_
*581 _0412_
*582 _0413_
*583 _0414_
*584 _0415_
*585 _0416_
*586 _0417_
*587 _0418_
*588 _0419_
*589 _0420_
*590 _0421_
*591 _0422_
*592 _0423_
*593 _0424_
*594 _0425_
*595 _0426_
*596 _0427_
*597 _0428_
*598 _0429_
*599 _0430_
*600 _0431_
*601 _0432_
*602 _0433_
*603 _0434_
*604 _0435_
*605 _0436_
*606 _0437_
*607 _0438_
*608 _0439_
*609 _0440_
*610 _0441_
*611 _0442_
*612 _0443_
*613 _0444_
*614 _0445_
*615 _0446_
*616 _0447_
*617 _0448_
*618 _0449_
*619 _0450_
*620 _0451_
*621 _0452_
*622 _0453_
*623 _0454_
*624 _0455_
*625 _0456_
*626 _0457_
*627 _0458_
*628 _0459_
*629 _0460_
*630 _0461_
*631 _0462_
*632 _0463_
*633 _0464_
*634 _0465_
*635 _0466_
*636 _0467_
*637 _0468_
*638 _0469_
*639 _0470_
*640 _0471_
*641 _0472_
*642 _0473_
*643 _0474_
*644 _0475_
*645 _0476_
*646 _0477_
*647 _0478_
*648 _0479_
*649 _0480_
*650 _0481_
*651 _0482_
*652 _0483_
*653 _0484_
*654 _0485_
*655 _0486_
*656 _0487_
*657 _0488_
*658 _0489_
*659 _0490_
*660 _0491_
*661 _0492_
*662 _0493_
*663 _0494_
*664 _0495_
*665 _0496_
*666 _0497_
*667 _0498_
*668 _0499_
*669 _0500_
*670 _0501_
*671 _0502_
*672 _0503_
*673 _0504_
*674 _0505_
*675 _0506_
*676 _0507_
*677 _0508_
*678 _0509_
*679 _0510_
*680 _0511_
*681 _0512_
*682 _0513_
*683 _0514_
*684 _0515_
*685 _0516_
*686 _0517_
*687 _0518_
*688 _0519_
*689 _0520_
*690 _0521_
*691 _0522_
*692 _0523_
*693 _0524_
*694 _0525_
*695 _0526_
*696 _0527_
*697 _0528_
*698 _0529_
*699 _0530_
*700 _0531_
*701 _0532_
*702 _0533_
*703 _0534_
*704 _0535_
*705 _0536_
*706 _0537_
*707 _0538_
*708 _0539_
*709 _0540_
*710 _0541_
*711 _0542_
*712 _0543_
*713 _0544_
*714 _0545_
*715 _0546_
*716 _0547_
*717 _0548_
*718 _0549_
*719 _0550_
*720 _0551_
*721 _0552_
*722 _0553_
*723 _0554_
*724 _0555_
*725 _0556_
*726 _0557_
*727 _0558_
*728 _0559_
*729 _0560_
*730 _0561_
*731 _0562_
*732 _0563_
*733 _0564_
*734 _0565_
*735 _0566_
*736 _0567_
*737 _0568_
*738 _0569_
*739 _0570_
*740 _0571_
*741 _0572_
*742 _0573_
*743 _0574_
*744 _0575_
*745 _0576_
*746 _0577_
*747 _0578_
*748 _0579_
*749 _0580_
*750 _0581_
*751 _0582_
*752 _0583_
*753 _0584_
*754 _0585_
*755 _0586_
*756 _0587_
*757 _0588_
*758 _0589_
*759 _0590_
*760 _0591_
*761 _0592_
*762 _0593_
*763 _0594_
*764 _0595_
*765 _0596_
*766 _0597_
*767 _0598_
*768 _0599_
*769 _0600_
*770 _0601_
*771 _0602_
*772 _0603_
*773 _0604_
*774 _0605_
*775 _0606_
*776 _0607_
*777 _0608_
*778 _0609_
*779 _0610_
*780 _0611_
*781 _0612_
*782 _0613_
*783 _0614_
*784 _0615_
*785 _0616_
*786 _0617_
*787 _0618_
*788 _0619_
*789 _0620_
*790 _0621_
*791 _0622_
*792 _0623_
*793 _0624_
*794 _0625_
*795 _0626_
*796 _0627_
*797 _0628_
*798 _0629_
*799 _0630_
*800 _0631_
*801 _0632_
*802 _0633_
*803 _0634_
*804 _0635_
*805 _0636_
*806 _0637_
*807 _0638_
*808 _0639_
*809 _0640_
*810 _0641_
*811 _0642_
*812 _0643_
*813 _0644_
*814 _0645_
*815 _0646_
*816 _0647_
*817 _0648_
*818 _0649_
*819 _0650_
*820 _0651_
*821 _0652_
*822 _0653_
*823 _0654_
*824 _0655_
*825 _0656_
*826 _0657_
*827 _0658_
*828 _0659_
*829 _0660_
*830 _0661_
*831 _0662_
*832 _0663_
*833 _0664_
*834 _0665_
*835 _0666_
*836 _0667_
*837 _0668_
*838 _0669_
*839 _0670_
*840 _0671_
*841 _0672_
*842 _0673_
*843 _0674_
*844 _0675_
*845 _0676_
*846 _0677_
*847 _0678_
*848 _0679_
*849 _0680_
*850 _0681_
*851 _0682_
*852 _0683_
*853 _0684_
*854 _0685_
*855 _0686_
*856 _0687_
*857 _0688_
*858 _0689_
*859 _0690_
*860 _0691_
*861 _0692_
*862 _0693_
*863 _0694_
*864 _0695_
*865 _0696_
*866 _0697_
*867 _0698_
*868 _0699_
*869 _0700_
*870 _0701_
*871 _0702_
*872 _0703_
*873 _0704_
*874 _0705_
*875 _0706_
*876 _0707_
*877 _0708_
*878 _0709_
*879 _0710_
*880 _0711_
*881 _0712_
*882 _0713_
*883 _0714_
*884 _0715_
*885 _0716_
*886 _0717_
*887 _0718_
*888 _0719_
*889 _0720_
*890 _0721_
*891 _0722_
*892 _0723_
*893 _0724_
*894 _0725_
*895 _0726_
*896 _0727_
*897 _0728_
*898 _0729_
*899 _0730_
*900 _0731_
*901 _0732_
*902 _0733_
*903 _0734_
*904 _0735_
*905 _0736_
*906 _0737_
*907 _0738_
*908 _0739_
*909 _0740_
*910 _0741_
*911 _0742_
*912 _0743_
*913 _0744_
*914 _0745_
*915 _0746_
*916 _0747_
*917 _0748_
*918 _0749_
*919 _0750_
*920 _0751_
*921 _0752_
*922 _0753_
*923 _0754_
*924 _0755_
*925 _0756_
*926 _0757_
*927 _0758_
*928 _0759_
*929 _0760_
*930 _0761_
*931 _0762_
*932 _0763_
*933 _0764_
*934 _0765_
*935 _0766_
*936 _0767_
*937 _0768_
*938 _0769_
*939 _0770_
*940 _0771_
*941 _0772_
*942 _0773_
*943 _0774_
*944 _0775_
*945 _0776_
*946 _0777_
*947 _0778_
*948 _0779_
*949 _0780_
*950 _0781_
*951 _0782_
*952 _0783_
*953 _0784_
*954 _0785_
*955 _0786_
*956 _0787_
*957 _0788_
*958 _0789_
*959 _0790_
*960 _0791_
*961 _0792_
*962 _0793_
*963 _0794_
*964 _0795_
*965 _0796_
*966 _0797_
*967 _0798_
*968 _0799_
*969 _0800_
*970 _0801_
*971 _0802_
*972 _0803_
*973 _0804_
*974 _0805_
*975 _0806_
*976 _0807_
*977 _0808_
*978 _0809_
*979 _0810_
*980 _0811_
*981 _0812_
*982 _0813_
*983 _0814_
*984 _0815_
*985 _0816_
*986 _0817_
*987 _0818_
*988 _0819_
*989 _0820_
*990 _0821_
*991 _0822_
*992 _0823_
*993 _0824_
*994 _0825_
*995 _0826_
*996 _0827_
*997 _0828_
*998 _0829_
*999 _0830_
*1000 _0831_
*1001 _0832_
*1002 _0833_
*1003 _0834_
*1004 _0835_
*1005 _0836_
*1006 _0837_
*1007 _0838_
*1008 _0839_
*1009 _0840_
*1010 _0841_
*1011 clknet_0_clk
*1012 clknet_1_0__leaf_clk
*1013 clknet_1_1__leaf_clk
*1014 clknet_leaf_0_clk
*1015 clknet_leaf_10_clk
*1016 clknet_leaf_11_clk
*1017 clknet_leaf_12_clk
*1018 clknet_leaf_13_clk
*1019 clknet_leaf_14_clk
*1020 clknet_leaf_15_clk
*1021 clknet_leaf_16_clk
*1022 clknet_leaf_17_clk
*1023 clknet_leaf_18_clk
*1024 clknet_leaf_19_clk
*1025 clknet_leaf_1_clk
*1026 clknet_leaf_20_clk
*1027 clknet_leaf_21_clk
*1028 clknet_leaf_2_clk
*1029 clknet_leaf_3_clk
*1030 clknet_leaf_4_clk
*1031 clknet_leaf_5_clk
*1032 clknet_leaf_6_clk
*1033 clknet_leaf_7_clk
*1034 clknet_leaf_8_clk
*1035 clknet_leaf_9_clk
*1036 dmem\.address\[10\]
*1037 dmem\.address\[11\]
*1038 dmem\.address\[12\]
*1039 dmem\.address\[13\]
*1040 dmem\.address\[14\]
*1041 dmem\.address\[15\]
*1042 dmem\.address\[16\]
*1043 dmem\.address\[17\]
*1044 dmem\.address\[18\]
*1045 dmem\.address\[19\]
*1046 dmem\.address\[20\]
*1047 dmem\.address\[21\]
*1048 dmem\.address\[22\]
*1049 dmem\.address\[23\]
*1050 dmem\.address\[24\]
*1051 dmem\.address\[25\]
*1052 dmem\.address\[26\]
*1053 dmem\.address\[27\]
*1054 dmem\.address\[28\]
*1055 dmem\.address\[29\]
*1056 dmem\.address\[2\]
*1057 dmem\.address\[30\]
*1058 dmem\.address\[31\]
*1059 dmem\.address\[3\]
*1060 dmem\.address\[4\]
*1061 dmem\.address\[5\]
*1062 dmem\.address\[6\]
*1063 dmem\.address\[7\]
*1064 dmem\.address\[8\]
*1065 dmem\.address\[9\]
*1066 ex_mem_alu_result\[0\]
*1067 ex_mem_alu_result\[1\]
*1068 ex_mem_valid
*1069 forwarding_unit\.rd_mem\[0\]
*1070 forwarding_unit\.rd_mem\[1\]
*1071 forwarding_unit\.rd_wb\[0\]
*1072 forwarding_unit\.rd_wb\[1\]
*1073 forwarding_unit\.reg_write_mem
*1074 forwarding_unit\.reg_write_wb
*1075 forwarding_unit\.rs1_ex\[0\]
*1076 forwarding_unit\.rs2_ex\[0\]
*1077 forwarding_unit\.rs2_ex\[1\]
*1078 forwarding_unit\.rs2_ex\[3\]
*1079 id_alu_src\[0\]
*1080 id_ex_immediate\[0\]
*1081 id_ex_immediate\[1\]
*1082 id_ex_immediate\[3\]
*1083 id_ex_rd_addr\[0\]
*1084 id_ex_rs1_data\[0\]
*1085 id_ex_rs1_data\[10\]
*1086 id_ex_rs1_data\[11\]
*1087 id_ex_rs1_data\[12\]
*1088 id_ex_rs1_data\[13\]
*1089 id_ex_rs1_data\[14\]
*1090 id_ex_rs1_data\[15\]
*1091 id_ex_rs1_data\[16\]
*1092 id_ex_rs1_data\[17\]
*1093 id_ex_rs1_data\[18\]
*1094 id_ex_rs1_data\[19\]
*1095 id_ex_rs1_data\[1\]
*1096 id_ex_rs1_data\[20\]
*1097 id_ex_rs1_data\[21\]
*1098 id_ex_rs1_data\[22\]
*1099 id_ex_rs1_data\[23\]
*1100 id_ex_rs1_data\[24\]
*1101 id_ex_rs1_data\[25\]
*1102 id_ex_rs1_data\[26\]
*1103 id_ex_rs1_data\[27\]
*1104 id_ex_rs1_data\[28\]
*1105 id_ex_rs1_data\[29\]
*1106 id_ex_rs1_data\[2\]
*1107 id_ex_rs1_data\[30\]
*1108 id_ex_rs1_data\[31\]
*1109 id_ex_rs1_data\[3\]
*1110 id_ex_rs1_data\[4\]
*1111 id_ex_rs1_data\[5\]
*1112 id_ex_rs1_data\[6\]
*1113 id_ex_rs1_data\[7\]
*1114 id_ex_rs1_data\[8\]
*1115 id_ex_rs1_data\[9\]
*1116 id_ex_rs2_data\[0\]
*1117 id_ex_rs2_data\[10\]
*1118 id_ex_rs2_data\[11\]
*1119 id_ex_rs2_data\[12\]
*1120 id_ex_rs2_data\[13\]
*1121 id_ex_rs2_data\[14\]
*1122 id_ex_rs2_data\[15\]
*1123 id_ex_rs2_data\[16\]
*1124 id_ex_rs2_data\[17\]
*1125 id_ex_rs2_data\[18\]
*1126 id_ex_rs2_data\[19\]
*1127 id_ex_rs2_data\[1\]
*1128 id_ex_rs2_data\[20\]
*1129 id_ex_rs2_data\[21\]
*1130 id_ex_rs2_data\[22\]
*1131 id_ex_rs2_data\[23\]
*1132 id_ex_rs2_data\[24\]
*1133 id_ex_rs2_data\[25\]
*1134 id_ex_rs2_data\[26\]
*1135 id_ex_rs2_data\[27\]
*1136 id_ex_rs2_data\[28\]
*1137 id_ex_rs2_data\[29\]
*1138 id_ex_rs2_data\[2\]
*1139 id_ex_rs2_data\[30\]
*1140 id_ex_rs2_data\[31\]
*1141 id_ex_rs2_data\[3\]
*1142 id_ex_rs2_data\[4\]
*1143 id_ex_rs2_data\[5\]
*1144 id_ex_rs2_data\[6\]
*1145 id_ex_rs2_data\[7\]
*1146 id_ex_rs2_data\[8\]
*1147 id_ex_rs2_data\[9\]
*1148 id_ex_valid
*1149 id_reg_write
*1150 if_id_valid
*1151 mem_wb_valid
*1152 net1
*1153 net10
*1154 net100
*1155 net101
*1156 net102
*1157 net103
*1158 net104
*1159 net105
*1160 net106
*1161 net107
*1162 net108
*1163 net109
*1164 net11
*1165 net110
*1166 net111
*1167 net112
*1168 net113
*1169 net114
*1170 net115
*1171 net116
*1172 net117
*1173 net118
*1174 net119
*1175 net12
*1176 net120
*1177 net121
*1178 net122
*1179 net123
*1180 net124
*1181 net125
*1182 net126
*1183 net127
*1184 net128
*1185 net129
*1186 net13
*1187 net130
*1188 net131
*1189 net132
*1190 net133
*1191 net134
*1192 net135
*1193 net136
*1194 net137
*1195 net138
*1196 net139
*1197 net14
*1198 net140
*1199 net141
*1200 net142
*1201 net15
*1202 net16
*1203 net169
*1204 net17
*1205 net170
*1206 net171
*1207 net172
*1208 net173
*1209 net174
*1210 net175
*1211 net176
*1212 net177
*1213 net178
*1214 net179
*1215 net18
*1216 net180
*1217 net181
*1218 net182
*1219 net183
*1220 net184
*1221 net185
*1222 net186
*1223 net187
*1224 net188
*1225 net189
*1226 net19
*1227 net190
*1228 net191
*1229 net192
*1230 net193
*1231 net194
*1232 net195
*1233 net196
*1234 net197
*1235 net198
*1236 net199
*1237 net2
*1238 net20
*1239 net200
*1240 net201
*1241 net202
*1242 net203
*1243 net204
*1244 net205
*1245 net206
*1246 net207
*1247 net208
*1248 net209
*1249 net21
*1250 net210
*1251 net211
*1252 net212
*1253 net213
*1254 net214
*1255 net215
*1256 net216
*1257 net217
*1258 net218
*1259 net219
*1260 net22
*1261 net220
*1262 net221
*1263 net222
*1264 net223
*1265 net224
*1266 net225
*1267 net226
*1268 net227
*1269 net228
*1270 net229
*1271 net23
*1272 net230
*1273 net231
*1274 net232
*1275 net233
*1276 net234
*1277 net235
*1278 net236
*1279 net237
*1280 net238
*1281 net239
*1282 net24
*1283 net240
*1284 net241
*1285 net242
*1286 net243
*1287 net244
*1288 net245
*1289 net246
*1290 net247
*1291 net248
*1292 net249
*1293 net25
*1294 net250
*1295 net251
*1296 net252
*1297 net253
*1298 net254
*1299 net255
*1300 net256
*1301 net257
*1302 net258
*1303 net259
*1304 net26
*1305 net260
*1306 net261
*1307 net262
*1308 net263
*1309 net264
*1310 net265
*1311 net266
*1312 net267
*1313 net268
*1314 net269
*1315 net27
*1316 net270
*1317 net271
*1318 net272
*1319 net273
*1320 net274
*1321 net275
*1322 net276
*1323 net277
*1324 net278
*1325 net279
*1326 net28
*1327 net280
*1328 net281
*1329 net282
*1330 net283
*1331 net284
*1332 net285
*1333 net286
*1334 net287
*1335 net288
*1336 net289
*1337 net29
*1338 net290
*1339 net291
*1340 net292
*1341 net293
*1342 net294
*1343 net295
*1344 net296
*1345 net297
*1346 net298
*1347 net299
*1348 net3
*1349 net30
*1350 net300
*1351 net301
*1352 net302
*1353 net303
*1354 net304
*1355 net305
*1356 net306
*1357 net307
*1358 net308
*1359 net309
*1360 net31
*1361 net310
*1362 net311
*1363 net312
*1364 net313
*1365 net314
*1366 net315
*1367 net316
*1368 net317
*1369 net318
*1370 net319
*1371 net32
*1372 net320
*1373 net321
*1374 net322
*1375 net323
*1376 net324
*1377 net325
*1378 net326
*1379 net327
*1380 net328
*1381 net329
*1382 net33
*1383 net330
*1384 net331
*1385 net332
*1386 net333
*1387 net334
*1388 net335
*1389 net336
*1390 net337
*1391 net338
*1392 net339
*1393 net34
*1394 net340
*1395 net341
*1396 net342
*1397 net343
*1398 net344
*1399 net345
*1400 net346
*1401 net347
*1402 net348
*1403 net349
*1404 net35
*1405 net350
*1406 net351
*1407 net352
*1408 net353
*1409 net354
*1410 net355
*1411 net356
*1412 net357
*1413 net358
*1414 net359
*1415 net36
*1416 net360
*1417 net361
*1418 net362
*1419 net363
*1420 net364
*1421 net365
*1422 net366
*1423 net367
*1424 net368
*1425 net369
*1426 net37
*1427 net370
*1428 net371
*1429 net372
*1430 net373
*1431 net374
*1432 net375
*1433 net376
*1434 net377
*1435 net378
*1436 net379
*1437 net38
*1438 net380
*1439 net381
*1440 net382
*1441 net383
*1442 net384
*1443 net385
*1444 net386
*1445 net387
*1446 net388
*1447 net389
*1448 net39
*1449 net390
*1450 net391
*1451 net392
*1452 net393
*1453 net394
*1454 net395
*1455 net396
*1456 net397
*1457 net398
*1458 net399
*1459 net4
*1460 net40
*1461 net400
*1462 net401
*1463 net402
*1464 net403
*1465 net404
*1466 net405
*1467 net406
*1468 net407
*1469 net408
*1470 net409
*1471 net41
*1472 net410
*1473 net411
*1474 net412
*1475 net413
*1476 net414
*1477 net415
*1478 net416
*1479 net417
*1480 net418
*1481 net419
*1482 net42
*1483 net420
*1484 net421
*1485 net422
*1486 net423
*1487 net424
*1488 net425
*1489 net426
*1490 net427
*1491 net428
*1492 net429
*1493 net43
*1494 net430
*1495 net431
*1496 net432
*1497 net433
*1498 net434
*1499 net435
*1500 net436
*1501 net437
*1502 net438
*1503 net439
*1504 net44
*1505 net440
*1506 net441
*1507 net442
*1508 net443
*1509 net444
*1510 net445
*1511 net446
*1512 net447
*1513 net448
*1514 net449
*1515 net45
*1516 net450
*1517 net451
*1518 net452
*1519 net453
*1520 net454
*1521 net455
*1522 net456
*1523 net457
*1524 net458
*1525 net459
*1526 net46
*1527 net460
*1528 net461
*1529 net462
*1530 net463
*1531 net464
*1532 net465
*1533 net466
*1534 net467
*1535 net468
*1536 net469
*1537 net47
*1538 net470
*1539 net471
*1540 net472
*1541 net473
*1542 net474
*1543 net475
*1544 net476
*1545 net477
*1546 net478
*1547 net479
*1548 net48
*1549 net480
*1550 net481
*1551 net482
*1552 net483
*1553 net484
*1554 net485
*1555 net486
*1556 net487
*1557 net488
*1558 net489
*1559 net49
*1560 net490
*1561 net491
*1562 net492
*1563 net493
*1564 net494
*1565 net495
*1566 net496
*1567 net497
*1568 net498
*1569 net499
*1570 net5
*1571 net50
*1572 net500
*1573 net501
*1574 net502
*1575 net503
*1576 net504
*1577 net505
*1578 net506
*1579 net507
*1580 net508
*1581 net509
*1582 net51
*1583 net510
*1584 net511
*1585 net512
*1586 net513
*1587 net514
*1588 net515
*1589 net516
*1590 net517
*1591 net518
*1592 net519
*1593 net52
*1594 net520
*1595 net521
*1596 net522
*1597 net523
*1598 net524
*1599 net525
*1600 net526
*1601 net527
*1602 net528
*1603 net529
*1604 net53
*1605 net530
*1606 net531
*1607 net532
*1608 net533
*1609 net534
*1610 net535
*1611 net536
*1612 net537
*1613 net538
*1614 net539
*1615 net54
*1616 net540
*1617 net541
*1618 net542
*1619 net543
*1620 net55
*1621 net56
*1622 net57
*1623 net58
*1624 net59
*1625 net6
*1626 net60
*1627 net61
*1628 net62
*1629 net63
*1630 net64
*1631 net65
*1632 net66
*1633 net67
*1634 net68
*1635 net69
*1636 net7
*1637 net70
*1638 net71
*1639 net72
*1640 net73
*1641 net74
*1642 net75
*1643 net76
*1644 net77
*1645 net78
*1646 net79
*1647 net8
*1648 net80
*1649 net81
*1650 net82
*1651 net83
*1652 net84
*1653 net85
*1654 net86
*1655 net87
*1656 net88
*1657 net89
*1658 net9
*1659 net90
*1660 net91
*1661 net92
*1662 net93
*1663 net94
*1664 net95
*1665 net96
*1666 net97
*1667 net98
*1668 net99
*1669 register_file\.write_data\[0\]
*1670 register_file\.write_data\[10\]
*1671 register_file\.write_data\[11\]
*1672 register_file\.write_data\[12\]
*1673 register_file\.write_data\[13\]
*1674 register_file\.write_data\[14\]
*1675 register_file\.write_data\[15\]
*1676 register_file\.write_data\[16\]
*1677 register_file\.write_data\[17\]
*1678 register_file\.write_data\[18\]
*1679 register_file\.write_data\[19\]
*1680 register_file\.write_data\[1\]
*1681 register_file\.write_data\[20\]
*1682 register_file\.write_data\[21\]
*1683 register_file\.write_data\[22\]
*1684 register_file\.write_data\[23\]
*1685 register_file\.write_data\[24\]
*1686 register_file\.write_data\[25\]
*1687 register_file\.write_data\[26\]
*1688 register_file\.write_data\[27\]
*1689 register_file\.write_data\[28\]
*1690 register_file\.write_data\[29\]
*1691 register_file\.write_data\[2\]
*1692 register_file\.write_data\[30\]
*1693 register_file\.write_data\[31\]
*1694 register_file\.write_data\[3\]
*1695 register_file\.write_data\[4\]
*1696 register_file\.write_data\[5\]
*1697 register_file\.write_data\[6\]
*1698 register_file\.write_data\[7\]
*1699 register_file\.write_data\[8\]
*1700 register_file\.write_data\[9\]
*1701 CPU_core_143
*1702 CPU_core_144
*1703 CPU_core_145
*1704 CPU_core_146
*1705 CPU_core_147
*1706 CPU_core_148
*1707 CPU_core_149
*1708 CPU_core_150
*1709 CPU_core_151
*1710 CPU_core_152
*1711 CPU_core_153
*1712 CPU_core_154
*1713 CPU_core_155
*1714 CPU_core_156
*1715 CPU_core_157
*1716 CPU_core_158
*1717 CPU_core_159
*1718 CPU_core_160
*1719 CPU_core_161
*1720 CPU_core_162
*1721 CPU_core_163
*1722 CPU_core_164
*1723 CPU_core_165
*1724 CPU_core_166
*1725 CPU_core_167
*1726 CPU_core_168
*1727 FILLER_0_0_100
*1728 FILLER_0_0_108
*1729 FILLER_0_0_113
*1730 FILLER_0_0_12
*1731 FILLER_0_0_125
*1732 FILLER_0_0_137
*1733 FILLER_0_0_153
*1734 FILLER_0_0_162
*1735 FILLER_0_0_169
*1736 FILLER_0_0_181
*1737 FILLER_0_0_197
*1738 FILLER_0_0_221
*1739 FILLER_0_0_225
*1740 FILLER_0_0_233
*1741 FILLER_0_0_237
*1742 FILLER_0_0_24
*1743 FILLER_0_0_249
*1744 FILLER_0_0_253
*1745 FILLER_0_0_262
*1746 FILLER_0_0_274
*1747 FILLER_0_0_281
*1748 FILLER_0_0_287
*1749 FILLER_0_0_29
*1750 FILLER_0_0_299
*1751 FILLER_0_0_3
*1752 FILLER_0_0_307
*1753 FILLER_0_0_312
*1754 FILLER_0_0_324
*1755 FILLER_0_0_33
*1756 FILLER_0_0_340
*1757 FILLER_0_0_352
*1758 FILLER_0_0_358
*1759 FILLER_0_0_362
*1760 FILLER_0_0_365
*1761 FILLER_0_0_37
*1762 FILLER_0_0_377
*1763 FILLER_0_0_389
*1764 FILLER_0_0_405
*1765 FILLER_0_0_412
*1766 FILLER_0_0_421
*1767 FILLER_0_0_433
*1768 FILLER_0_0_437
*1769 FILLER_0_0_445
*1770 FILLER_0_0_449
*1771 FILLER_0_0_457
*1772 FILLER_0_0_462
*1773 FILLER_0_0_474
*1774 FILLER_0_0_477
*1775 FILLER_0_0_483
*1776 FILLER_0_0_487
*1777 FILLER_0_0_49
*1778 FILLER_0_0_499
*1779 FILLER_0_0_503
*1780 FILLER_0_0_505
*1781 FILLER_0_0_521
*1782 FILLER_0_0_529
*1783 FILLER_0_0_533
*1784 FILLER_0_0_546
*1785 FILLER_0_0_55
*1786 FILLER_0_0_558
*1787 FILLER_0_0_57
*1788 FILLER_0_0_573
*1789 FILLER_0_0_585
*1790 FILLER_0_0_601
*1791 FILLER_0_0_612
*1792 FILLER_0_0_617
*1793 FILLER_0_0_62
*1794 FILLER_0_0_629
*1795 FILLER_0_0_633
*1796 FILLER_0_0_637
*1797 FILLER_0_0_643
*1798 FILLER_0_0_645
*1799 FILLER_0_0_657
*1800 FILLER_0_0_662
*1801 FILLER_0_0_670
*1802 FILLER_0_0_673
*1803 FILLER_0_0_681
*1804 FILLER_0_0_687
*1805 FILLER_0_0_699
*1806 FILLER_0_0_701
*1807 FILLER_0_0_712
*1808 FILLER_0_0_724
*1809 FILLER_0_0_729
*1810 FILLER_0_0_733
*1811 FILLER_0_0_737
*1812 FILLER_0_0_74
*1813 FILLER_0_0_749
*1814 FILLER_0_0_755
*1815 FILLER_0_0_757
*1816 FILLER_0_0_762
*1817 FILLER_0_0_774
*1818 FILLER_0_0_782
*1819 FILLER_0_0_788
*1820 FILLER_0_0_82
*1821 FILLER_0_0_88
*1822 FILLER_0_100_121
*1823 FILLER_0_100_133
*1824 FILLER_0_100_139
*1825 FILLER_0_100_141
*1826 FILLER_0_100_153
*1827 FILLER_0_100_162
*1828 FILLER_0_100_178
*1829 FILLER_0_100_190
*1830 FILLER_0_100_204
*1831 FILLER_0_100_216
*1832 FILLER_0_100_228
*1833 FILLER_0_100_23
*1834 FILLER_0_100_240
*1835 FILLER_0_100_253
*1836 FILLER_0_100_265
*1837 FILLER_0_100_27
*1838 FILLER_0_100_277
*1839 FILLER_0_100_289
*1840 FILLER_0_100_301
*1841 FILLER_0_100_307
*1842 FILLER_0_100_309
*1843 FILLER_0_100_321
*1844 FILLER_0_100_333
*1845 FILLER_0_100_345
*1846 FILLER_0_100_357
*1847 FILLER_0_100_36
*1848 FILLER_0_100_363
*1849 FILLER_0_100_365
*1850 FILLER_0_100_377
*1851 FILLER_0_100_389
*1852 FILLER_0_100_401
*1853 FILLER_0_100_413
*1854 FILLER_0_100_419
*1855 FILLER_0_100_421
*1856 FILLER_0_100_433
*1857 FILLER_0_100_44
*1858 FILLER_0_100_445
*1859 FILLER_0_100_457
*1860 FILLER_0_100_469
*1861 FILLER_0_100_475
*1862 FILLER_0_100_477
*1863 FILLER_0_100_489
*1864 FILLER_0_100_501
*1865 FILLER_0_100_513
*1866 FILLER_0_100_525
*1867 FILLER_0_100_531
*1868 FILLER_0_100_533
*1869 FILLER_0_100_545
*1870 FILLER_0_100_557
*1871 FILLER_0_100_569
*1872 FILLER_0_100_581
*1873 FILLER_0_100_587
*1874 FILLER_0_100_589
*1875 FILLER_0_100_601
*1876 FILLER_0_100_613
*1877 FILLER_0_100_625
*1878 FILLER_0_100_637
*1879 FILLER_0_100_643
*1880 FILLER_0_100_645
*1881 FILLER_0_100_657
*1882 FILLER_0_100_669
*1883 FILLER_0_100_681
*1884 FILLER_0_100_693
*1885 FILLER_0_100_699
*1886 FILLER_0_100_701
*1887 FILLER_0_100_71
*1888 FILLER_0_100_713
*1889 FILLER_0_100_725
*1890 FILLER_0_100_737
*1891 FILLER_0_100_749
*1892 FILLER_0_100_755
*1893 FILLER_0_100_757
*1894 FILLER_0_100_769
*1895 FILLER_0_100_781
*1896 FILLER_0_100_83
*1897 FILLER_0_100_85
*1898 FILLER_0_100_97
*1899 FILLER_0_101_111
*1900 FILLER_0_101_113
*1901 FILLER_0_101_125
*1902 FILLER_0_101_137
*1903 FILLER_0_101_141
*1904 FILLER_0_101_158
*1905 FILLER_0_101_182
*1906 FILLER_0_101_186
*1907 FILLER_0_101_198
*1908 FILLER_0_101_210
*1909 FILLER_0_101_219
*1910 FILLER_0_101_223
*1911 FILLER_0_101_225
*1912 FILLER_0_101_237
*1913 FILLER_0_101_249
*1914 FILLER_0_101_261
*1915 FILLER_0_101_273
*1916 FILLER_0_101_279
*1917 FILLER_0_101_281
*1918 FILLER_0_101_293
*1919 FILLER_0_101_305
*1920 FILLER_0_101_317
*1921 FILLER_0_101_329
*1922 FILLER_0_101_335
*1923 FILLER_0_101_337
*1924 FILLER_0_101_349
*1925 FILLER_0_101_361
*1926 FILLER_0_101_373
*1927 FILLER_0_101_385
*1928 FILLER_0_101_391
*1929 FILLER_0_101_393
*1930 FILLER_0_101_405